Version 4
SHEET 1 880 680
TEXT 80 96 Left 2 !V1 1 0 pulse(0V, 5V, 1ns, 1ns, 1ms, 2ms, 3ms, 4ms, 5ms )\nL1 3 0 4.29mH\nR1 1 2  27\nR2 2 3 100\nR3 2 0 2.2k\n.tran 100us 2.5ms\n.end
